-- RAM Initialization file
WIDTH = 8;
DEPTH = 128;
ADDRESS_RADIX = HEX;
DATA_RADIX = BIN;
CONTENT
BEGIN
   0 : 0000;
   1 : 1000;
   2 : 0010;
   3 : 0100;
   4 : 0001;
   5 : 0100;
   6 : 0000;
   7 : 0101;
   8 : 0000;
   9 : 1000;
   A : 0010;
   B : 1000;
   C : 0010;
   D : 1000;
   E : 0000;
   F : 0100;
  10 : 0000;
  11 : 1000;
  12 : 0010;
  13 : 1000;
  14 : 0000;
  15 : 1001;
  16 : 0000;
  17 : 0101;
  18 : 0000;
  19 : 1010;
  1A : 0000;
  1B : 0110;
  1C : 0000;
  1D : 0110;
  1E : 0000;
  1F : 1000;
  20 : 0010;
  21 : 0000;
  22 : 1001;
  23 : 0000;
  24 : 1000;
  25 : 0010;
  26 : 0100;
  27 : 0000;
  28 : 1000;
  29 : 0010;
  2A : 0100;
  2B : 0000;
  2C : 0000;
  2D : 0100;
  2E : 0000;
  2F : 1010;
  30 : 0000;
  31 : 1010;
  32 : 0000;
  33 : 0000;
  34 : 1010;
  35 : 0000;
  36 : 1000;
  37 : 0001;
  38 : 0010;
  39 : 1000;
  3A : 0001;
  3B : 0000;
  3C : 1000;
  3D : 0000;
  3E : 1001;
  3F : 0000;
  40 : 1000;
  41 : 0010;
  42 : 0100;
  43 : 0000;
  44 : 0000;
  45 : 0010;
  46 : 0000;
  47 : 0110;
  48 : 0000;
  49 : 1010;
  4A : 0000;
  4B : 0100;
  4C : 0001;
  4D : 1000;
  4E : 0000;
  4F : 0110;
  50 : 0000;
  51 : 1000;
  52 : 0010;
  53 : 1000;
  54 : 0010;
  55 : 0000;
  56 : 0001;
  57 : 0100;
  58 : 0000;
  59 : 1010;
  5A : 0000;
  5B : 0100;
  5C : 0000;
  5D : 0100;
  5E : 0000;
  5F : 1000;
  60 : 0000;
  61 : 1000;
  62 : 0010;
  63 : 1000;
  64 : 0000;
  65 : 1010;
  66 : 0000;
  67 : 1000;
  68 : 0000;
  69 : 0000;
  6A : 1010;
  6B : 0000;
  6C : 1010;
  6D : 0000;
  6E : 0000;
  6F : 0110;
  70 : 0000;
  71 : 1000;
  72 : 0010;
  73 : 0000;
  74 : 1000;
  75 : 0010;
  76 : 1000;
  77 : 0010;
  78 : 1000;
  79 : 0010;
  7A : 0100;
  7B : 0001;
  7C : 0000;
  7D : 0000;
  7E : 1000;
  7F : 0001;
  80 : 0000;
  81 : 1010;
  82 : 0000;
  83 : 0101;
  84 : 0000;
  85 : 1000;
  86 : 0010;
  87 : 0000;
  88 : 0010;
  89 : 1000;
  8A : 0001;
  8B : 0100;
  8C : 0000;
  8D : 0101;
  8E : 0000;
  8F : 0101;
  90 : 0000;
  91 : 0000;
  92 : 0000;
  93 : 1010;
  94 : 0000;
  95 : 1010;
  96 : 0000;
  97 : 0000;
  98 : 0000;
  99 : 0000;
  9A : 1010;
  9B : 0000;
  9C : 0000;
  9D : 0000;
  9E : 0010;
  9F : 0000;
  A0 : 0000;
  A1 : 0010;
  A2 : 0000;
  A3 : 1000;
  A4 : 0001;
  A5 : 0100;
  A6 : 0000;
  A7 : 0110;
  A8 : 0000;
  A9 : 0010;
  AA : 1000;
  AB : 0001;
  AC : 0000;
  AD : 1000;
  AE : 0000;
  AF : 1010;
  B0 : 0000;
  B1 : 0000;
  B2 : 1010;
  B3 : 0000;
  B4 : 0001;
  B5 : 0000;
  B6 : 0010;
  B7 : 1000;
  B8 : 0000;
  B9 : 0010;
  BA : 1000;
  BB : 0000;
  BC : 0001;
  BD : 0000;
  BE : 1010;
  BF : 0000;
  C0 : 0010;
  C1 : 1000;
  C2 : 0001;
  C3 : 1000;
  C4 : 0001;
  C5 : 0000;
  C6 : 1000;
  C7 : 0000;
  C8 : 0000;
  C9 : 1000;
  CA : 0000;
  CB : 0100;
  CC : 0010;
  CD : 1000;
  CE : 0001;
  CF : 1000;
  D0 : 0000;
  D1 : 1010;
  D2 : 0000;
  D3 : 0101;
  D4 : 0000;
  D5 : 1001;
  D6 : 0000;
  D7 : 0000;
  D8 : 0000;
  D9 : 1000;
  DA : 0000;
  DB : 1000;
  DC : 0010;
  DD : 0000;
  DE : 0100;
  DF : 0000;
  E0 : 0000;
  E1 : 0010;
  E2 : 0000;
  E3 : 1000;
  E4 : 0001;
  E5 : 0100;
  E6 : 0000;
  E7 : 0000;
  E8 : 0000;
  E9 : 1010;
  EA : 0000;
  EB : 0000;
  EC : 0001;
  ED : 0000;
  EE : 0001;
  EF : 0100;
  F0 : 0000;
  F1 : 0010;
  F2 : 1000;
  F3 : 0010;
  F4 : 0000;
  F5 : 1001;
  F6 : 0000;
  F7 : 0110;
  F8 : 0000;
  F9 : 0000;
  FA : 1010;
  FB : 0000;
  FC : 0001;
  FD : 0000;
  FE : 0000;
  FF : 1001;
 100 : 0000;
 101 : 1010;
 102 : 0000;
 103 : 0000;
 104 : 0100;
 105 : 0001;
 106 : 1000;
 107 : 0001;
 108 : 1000;
 109 : 0010;
 10A : 0100;
 10B : 0001;
 10C : 0100;
 10D : 0000;
 10E : 0001;
 10F : 0100;
 110 : 0010;
 111 : 0000;
 112 : 0001;
 113 : 1000;
 114 : 0001;
 115 : 1000;
 116 : 0001;
 117 : 0000;
 118 : 0000;
 119 : 1010;
 11A : 0000;
 11B : 0000;
 11C : 0000;
 11D : 1000;
 11E : 0010;
 11F : 0100;
 120 : 1000;
 121 : 0000;
 122 : 0110;
 123 : 0000;
 124 : 0000;
 125 : 0110;
 126 : 0000;
 127 : 0101;
 128 : 0000;
 129 : 0000;
 12A : 0010;
 12B : 1000;
 12C : 0000;
 12D : 1010;
 12E : 0000;
 12F : 0001;
 130 : 0000;
 131 : 0000;
 132 : 1010;
 133 : 0000;
 134 : 0001;
 135 : 0000;
 136 : 0100;
 137 : 0010;
 138 : 0010;
 139 : 1000;
 13A : 0001;
 13B : 0100;
 13C : 0000;
 13D : 0000;
 13E : 1000;
 13F : 0000;
 140 : 1000;
 141 : 0000;
 142 : 0110;
 143 : 0000;
 144 : 0100;
 145 : 0000;
 146 : 0001;
 147 : 1000;
 148 : 0000;
 149 : 1000;
 14A : 0000;
 14B : 0110;
 14C : 0000;
 14D : 0000;
 14E : 1000;
 14F : 0001;
 150 : 0000;
 151 : 0000;
 152 : 1010;
 153 : 0000;
 154 : 0000;
 155 : 0110;
 156 : 0000;
 157 : 0100;
 158 : 0000;
 159 : 1010;
 15A : 0000;
 15B : 0100;
 15C : 0010;
 15D : 1000;
 15E : 0010;
 15F : 1000;
 160 : 0000;
 161 : 1010;
 162 : 0000;
 163 : 0000;
 164 : 0110;
 165 : 0000;
 166 : 0000;
 167 : 1001;
 168 : 0000;
 169 : 0010;
 16A : 1000;
 16B : 0000;
 16C : 1010;
 16D : 0000;
 16E : 0001;
 16F : 1000;
 170 : 0000;
 171 : 0000;
 172 : 0000;
 173 : 0000;
 174 : 0000;
 175 : 0000;
 176 : 0000;
 177 : 1000;
 178 : 0000;
 179 : 1000;
 17A : 0010;
 17B : 0000;
 17C : 1000;
 17D : 0010;
 17E : 0100;
 17F : 0010;
 180 : 0010;
 181 : 1000;
 182 : 0001;
 183 : 0100;
 184 : 0000;
 185 : 1001;
 186 : 0000;
 187 : 0101;
 188 : 0000;
 189 : 0000;
 18A : 1010;
 18B : 0000;
 18C : 1000;
 18D : 0000;
 18E : 0100;
 18F : 0000;
 190 : 0000;
 191 : 0010;
 192 : 0000;
 193 : 0000;
 194 : 1000;
 195 : 0001;
 196 : 0100;
 197 : 0000;
 198 : 0000;
 199 : 0000;
 19A : 1010;
 19B : 0000;
 19C : 0000;
 19D : 1000;
 19E : 0001;
 19F : 0000;
 1A0 : 0000;
 1A1 : 0000;
 1A2 : 1000;
 1A3 : 0010;
 1A4 : 0100;
 1A5 : 0001;
 1A6 : 0000;
 1A7 : 0100;
 1A8 : 0000;
 1A9 : 0000;
 1AA : 0010;
 1AB : 1000;
 1AC : 0010;
 1AD : 1000;
 1AE : 0000;
 1AF : 0001;
 1B0 : 0000;
 1B1 : 1010;
 1B2 : 0000;
 1B3 : 1010;
 1B4 : 0000;
 1B5 : 0000;
 1B6 : 1010;
 1B7 : 0000;
 1B8 : 0010;
 1B9 : 0000;
 1BA : 1001;
 1BB : 0000;
 1BC : 1000;
 1BD : 0010;
 1BE : 0000;
 1BF : 0101;
 1C0 : 0010;
 1C1 : 0000;
 1C2 : 0001;
 1C3 : 0000;
 1C4 : 0001;
 1C5 : 1000;
 1C6 : 0000;
 1C7 : 1001;
 1C8 : 0000;
 1C9 : 0000;
 1CA : 1000;
 1CB : 0000;
 1CC : 0010;
 1CD : 1000;
 1CE : 0000;
 1CF : 1000;
 1D0 : 0000;
 1D1 : 1000;
 1D2 : 0010;
 1D3 : 1000;
 1D4 : 0000;
 1D5 : 0000;
 1D6 : 0110;
 1D7 : 0000;
 1D8 : 0000;
 1D9 : 0000;
 1DA : 0010;
 1DB : 1000;
 1DC : 0001;
 1DD : 0000;
 1DE : 0000;
 1DF : 0001;
 1E0 : 1000;
 1E1 : 0000;
 1E2 : 0110;
 1E3 : 0000;
 1E4 : 0000;
 1E5 : 0100;
 1E6 : 0000;
 1E7 : 0000;
 1E8 : 0010;
 1E9 : 0000;
 1EA : 1001;
 1EB : 0000;
 1EC : 0000;
 1ED : 0010;
 1EE : 0000;
 1EF : 0001;
 1F0 : 0000;
 1F1 : 0010;
 1F2 : 1000;
 1F3 : 0000;
 1F4 : 0001;
 1F5 : 0000;
 1F6 : 0000;
 1F7 : 1001;
 1F8 : 0000;
 1F9 : 0010;
 1FA : 0000;
 1FB : 1010;
 1FC : 0000;
 1FD : 1001;
 1FE : 0000;
 1FF : 0001;
 200 : 0000;
 201 : 1010;
 202 : 0000;
 203 : 1010;
 204 : 0000;
 205 : 0110;
 206 : 0000;
 207 : 1010;
 208 : 0000;
 209 : 0000;
 20A : 0000;
 20B : 0010;
 20C : 1000;
 20D : 0000;
 20E : 0000;
 20F : 0100;
 210 : 1010;
 211 : 0000;
 212 : 0101;
 213 : 0000;
 214 : 0000;
 215 : 0001;
 216 : 0000;
 217 : 0101;
 218 : 0000;
 219 : 0000;
 21A : 0000;
 21B : 1000;
 21C : 0010;
 21D : 0000;
 21E : 0010;
 21F : 0100;
 220 : 0000;
 221 : 0010;
 222 : 1000;
 223 : 0010;
 224 : 0000;
 225 : 0101;
 226 : 0000;
 227 : 0001;
 228 : 0000;
 229 : 1010;
 22A : 0000;
 22B : 0000;
 22C : 0010;
 22D : 1000;
 22E : 0000;
 22F : 1010;
 230 : 0000;
 231 : 0010;
 232 : 0000;
 233 : 1000;
 234 : 0010;
 235 : 0000;
 236 : 0100;
 237 : 0000;
 238 : 0000;
 239 : 1000;
 23A : 0000;
 23B : 0110;
 23C : 0000;
 23D : 1001;
 23E : 0000;
 23F : 0110;
 240 : 0000;
 241 : 1010;
 242 : 0000;
 243 : 0001;
 244 : 1000;
 245 : 0001;
 246 : 0000;
 247 : 0010;
 248 : 1000;
 249 : 0010;
 24A : 0100;
 24B : 0001;
 24C : 0000;
 24D : 0110;
 24E : 0000;
 24F : 1001;
 250 : 0000;
 251 : 1010;
 252 : 0000;
 253 : 0001;
 254 : 1000;
 255 : 0010;
 256 : 0000;
 257 : 1010;
 258 : 0010;
 259 : 1000;
 25A : 0001;
 25B : 1000;
 25C : 0001;
 25D : 0100;
 25E : 0001;
 25F : 0100;
 260 : 0000;
 261 : 0010;
 262 : 1000;
 263 : 0000;
 264 : 1000;
 265 : 0010;
 266 : 0000;
 267 : 1000;
 268 : 0000;
 269 : 0010;
 26A : 1000;
 26B : 0010;
 26C : 0100;
 26D : 0000;
 26E : 0000;
 26F : 0010;
 270 : 0000;
 271 : 1010;
 272 : 0000;
 273 : 0101;
 274 : 0000;
 275 : 1010;
 276 : 0000;
 277 : 0010;
 278 : 0010;
 279 : 0000;
 27A : 1001;
 27B : 0000;
 27C : 0100;
 27D : 0000;
 27E : 0100;
 27F : 0000;
 280 : 0000;
 281 : 1000;
 282 : 0000;
 283 : 1000;
 284 : 0010;
 285 : 1000;
 286 : 0001;
 287 : 1000;
 288 : 0000;
 289 : 1010;
 28A : 0000;
 28B : 0000;
 28C : 0001;
 28D : 0000;
 28E : 1001;
 28F : 0000;
 290 : 0000;
 291 : 1000;
 292 : 0010;
 293 : 1000;
 294 : 0000;
 295 : 0001;
 296 : 1000;
 297 : 0000;
 298 : 0000;
 299 : 1010;
 29A : 0000;
 29B : 1001;
 29C : 0000;
 29D : 0000;
 29E : 0000;
 29F : 0000;
 2A0 : 0000;
 2A1 : 1010;
 2A2 : 0000;
 2A3 : 0100;
 2A4 : 0000;
 2A5 : 0010;
 2A6 : 0000;
 2A7 : 0110;
 2A8 : 0000;
 2A9 : 0000;
 2AA : 1000;
 2AB : 0010;
 2AC : 0000;
 2AD : 0010;
 2AE : 0000;
 2AF : 0110;
 2B0 : 0000;
 2B1 : 1010;
 2B2 : 0000;
 2B3 : 0000;
 2B4 : 0000;
 2B5 : 1001;
 2B6 : 0000;
 2B7 : 1010;
 2B8 : 1000;
 2B9 : 0000;
 2BA : 0110;
 2BB : 0000;
 2BC : 0000;
 2BD : 1000;
 2BE : 0000;
 2BF : 0100;
 2C0 : 0010;
 2C1 : 1000;
 2C2 : 0001;
 2C3 : 1000;
 2C4 : 0001;
 2C5 : 0100;
 2C6 : 0000;
 2C7 : 1000;
 2C8 : 0000;
 2C9 : 1000;
 2CA : 0000;
 2CB : 1010;
 2CC : 0000;
 2CD : 1001;
 2CE : 0000;
 2CF : 0110;
 2D0 : 0000;
 2D1 : 1000;
 2D2 : 0000;
 2D3 : 0000;
 2D4 : 1010;
 2D5 : 0000;
 2D6 : 0010;
 2D7 : 0100;
 2D8 : 0010;
 2D9 : 1000;
 2DA : 0001;
 2DB : 0000;
 2DC : 0000;
 2DD : 0100;
 2DE : 0000;
 2DF : 0000;
 2E0 : 0000;
 2E1 : 1000;
 2E2 : 0000;
 2E3 : 1010;
 2E4 : 0000;
 2E5 : 0100;
 2E6 : 0000;
 2E7 : 0001;
 2E8 : 0000;
 2E9 : 1000;
 2EA : 0000;
 2EB : 0110;
 2EC : 0000;
 2ED : 0000;
 2EE : 1000;
 2EF : 0001;
 2F0 : 1000;
 2F1 : 0000;
 2F2 : 0100;
 2F3 : 0010;
 2F4 : 0100;
 2F5 : 0000;
 2F6 : 0000;
 2F7 : 0101;
 2F8 : 0000;
 2F9 : 0000;
 2FA : 0000;
 2FB : 0000;
 2FC : 1010;
 2FD : 0000;
 2FE : 0100;
 2FF : 0010;
 300 : 1000;
 301 : 0010;
 302 : 0100;
 303 : 0001;
 304 : 0000;
 305 : 0001;
 306 : 0000;
 307 : 1010;
 308 : 0000;
 309 : 0010;
 30A : 0000;
 30B : 0000;
 30C : 1000;
 30D : 0010;
 30E : 0000;
 30F : 1001;
 310 : 0000;
 311 : 1010;
 312 : 0000;
 313 : 0010;
 314 : 0100;
 315 : 0010;
 316 : 0000;
 317 : 0101;
 318 : 0000;
 319 : 0010;
 31A : 1000;
 31B : 0010;
 31C : 1000;
 31D : 0000;
 31E : 0000;
 31F : 0001;
 320 : 0000;
 321 : 0010;
 322 : 0000;
 323 : 0000;
 324 : 1010;
 325 : 0000;
 326 : 1000;
 327 : 0001;
 328 : 0000;
 329 : 1010;
 32A : 0000;
 32B : 0001;
 32C : 1000;
 32D : 0000;
 32E : 0000;
 32F : 1001;
 330 : 0000;
 331 : 1010;
 332 : 0000;
 333 : 0000;
 334 : 0010;
 335 : 0100;
 336 : 0000;
 337 : 1001;
 338 : 0010;
 339 : 1000;
 33A : 0001;
 33B : 1000;
 33C : 0000;
 33D : 0000;
 33E : 0000;
 33F : 0100;
 340 : 0000;
 341 : 1010;
 342 : 0000;
 343 : 0001;
 344 : 0100;
 345 : 0010;
 346 : 0000;
 347 : 1001;
 348 : 0000;
 349 : 1000;
 34A : 0010;
 34B : 1000;
 34C : 0000;
 34D : 0000;
 34E : 0001;
 34F : 1000;
 350 : 0000;
 351 : 1010;
 352 : 0000;
 353 : 0010;
 354 : 0100;
 355 : 0000;
 356 : 1000;
 357 : 0001;
 358 : 1000;
 359 : 0000;
 35A : 0110;
 35B : 0000;
 35C : 0001;
 35D : 0000;
 35E : 0000;
 35F : 0101;
 360 : 1000;
 361 : 0000;
 362 : 0110;
 363 : 0000;
 364 : 0101;
 365 : 0000;
 366 : 0000;
 367 : 0001;
 368 : 0000;
 369 : 1010;
 36A : 0000;
 36B : 0101;
 36C : 0000;
 36D : 1000;
 36E : 0001;
 36F : 0100;
 370 : 0000;
 371 : 1010;
 372 : 0000;
 373 : 1000;
 374 : 0000;
 375 : 0000;
 376 : 0001;
 377 : 0100;
 378 : 0000;
 379 : 1010;
 37A : 0000;
 37B : 0100;
 37C : 0000;
 37D : 0000;
 37E : 0001;
 37F : 0100;
 380 : 0000;
 381 : 1000;
 382 : 0000;
 383 : 1010;
 384 : 0000;
 385 : 1001;
 386 : 0000;
 387 : 0100;
 388 : 0000;
 389 : 0000;
 38A : 1000;
 38B : 0010;
 38C : 0000;
 38D : 0001;
 38E : 0000;
 38F : 0000;
 390 : 1000;
 391 : 0000;
 392 : 0110;
 393 : 0000;
 394 : 0000;
 395 : 0001;
 396 : 1000;
 397 : 0000;
 398 : 0000;
 399 : 0010;
 39A : 1000;
 39B : 0000;
 39C : 0010;
 39D : 0100;
 39E : 0010;
 39F : 0000;
 3A0 : 0000;
 3A1 : 0000;
 3A2 : 0010;
 3A3 : 0000;
 3A4 : 1010;
 3A5 : 0000;
 3A6 : 0000;
 3A7 : 0110;
 3A8 : 0000;
 3A9 : 1010;
 3AA : 0000;
 3AB : 1010;
 3AC : 0000;
 3AD : 0110;
 3AE : 0000;
 3AF : 0101;
 3B0 : 0010;
 3B1 : 1000;
 3B2 : 0001;
 3B3 : 1000;
 3B4 : 0000;
 3B5 : 1000;
 3B6 : 0001;
 3B7 : 0100;
 3B8 : 1000;
 3B9 : 0000;
 3BA : 0110;
 3BB : 0000;
 3BC : 0010;
 3BD : 0100;
 3BE : 0000;
 3BF : 1000;
 3C0 : 0000;
 3C1 : 0000;
 3C2 : 1000;
 3C3 : 0000;
 3C4 : 0000;
 3C5 : 0010;
 3C6 : 0000;
 3C7 : 1010;
 3C8 : 0000;
 3C9 : 1010;
 3CA : 0000;
 3CB : 1000;
 3CC : 0001;
 3CD : 0000;
 3CE : 0000;
 3CF : 1010;
 3D0 : 0000;
 3D1 : 1010;
 3D2 : 0000;
 3D3 : 0010;
 3D4 : 0100;
 3D5 : 0001;
 3D6 : 0100;
 3D7 : 0001;
 3D8 : 0000;
 3D9 : 1000;
 3DA : 0010;
 3DB : 0100;
 3DC : 0000;
 3DD : 0000;
 3DE : 0100;
 3DF : 0000;
 3E0 : 0000;
 3E1 : 1010;
 3E2 : 0000;
 3E3 : 1001;
 3E4 : 0000;
 3E5 : 0000;
 3E6 : 1000;
 3E7 : 0010;
 3E8 : 1000;
 3E9 : 0000;
 3EA : 0110;
 3EB : 0000;
 3EC : 0001;
 3ED : 0000;
 3EE : 0001;
 3EF : 0000;
 3F0 : 0010;
 3F1 : 0000;
 3F2 : 0001;
 3F3 : 0000;
 3F4 : 1000;
 3F5 : 0000;
 3F6 : 0001;
 3F7 : 0100;
 3F8 : 0000;
 3F9 : 1010;
 3FA : 0000;
 3FB : 0001;
 3FC : 1000;
 3FD : 0000;
 3FE : 0000;
 3FF : 0100;
END
