-- RAM Initialization file
WIDTH = 8;
DEPTH = 1024;
ADDRESS_RADIX = HEX;
DATA_RADIX = BIN;
CONTENT
BEGIN
   0 : 00000000;
   1 : 00000100;
   2 : 00000000;
   3 : 00000000;
   4 : 00000000;
   5 : 00000000;
   6 : 00000001;
   7 : 00010101;
   8 : 00001000;
   9 : 00000010;
   A : 00000000;
   B : 00000100;
   C : 00000001;
   D : 00010101;
   E : 00100000;
   F : 00001000;
  10 : 00000000;
  11 : 00000101;
  12 : 00000010;
  13 : 00000101;
  14 : 00100000;
  15 : 00000000;
  16 : 00010000;
  17 : 00010000;
  18 : 00000000;
  19 : 00100101;
  1A : 00101000;
  1B : 00010100;
  1C : 00000010;
  1D : 00000010;
  1E : 00000010;
  1F : 00001000;
  20 : 00010100;
  21 : 00000000;
  22 : 00000001;
  23 : 00000010;
  24 : 00010000;
  25 : 00000000;
  26 : 00000000;
  27 : 00100001;
  28 : 00000000;
  29 : 00001001;
  2A : 00000010;
  2B : 00000000;
  2C : 00100000;
  2D : 00100000;
  2E : 00000000;
  2F : 00101010;
  30 : 00000000;
  31 : 00000001;
  32 : 00100001;
  33 : 00001000;
  34 : 00100010;
  35 : 00000000;
  36 : 00010000;
  37 : 00000000;
  38 : 00101000;
  39 : 00000000;
  3A : 00000001;
  3B : 00100000;
  3C : 00000000;
  3D : 00000000;
  3E : 00100101;
  3F : 00100000;
  40 : 00000000;
  41 : 00000000;
  42 : 00000001;
  43 : 00000010;
  44 : 00001000;
  45 : 00100000;
  46 : 00000101;
  47 : 00000000;
  48 : 00010000;
  49 : 00001000;
  4A : 00100000;
  4B : 00001010;
  4C : 00000001;
  4D : 00000010;
  4E : 00010000;
  4F : 00000000;
  50 : 00101000;
  51 : 00000000;
  52 : 00001001;
  53 : 00000101;
  54 : 00000001;
  55 : 00001001;
  56 : 00000000;
  57 : 00000010;
  58 : 00000101;
  59 : 00000100;
  5A : 00101000;
  5B : 00010100;
  5C : 00000100;
  5D : 00000100;
  5E : 00000001;
  5F : 00000101;
  60 : 00100000;
  61 : 00000000;
  62 : 00000000;
  63 : 00010001;
  64 : 00000000;
  65 : 00000001;
  66 : 00001001;
  67 : 00001000;
  68 : 00000100;
  69 : 00000100;
  6A : 00010100;
  6B : 00000001;
  6C : 00010001;
  6D : 00000000;
  6E : 00000000;
  6F : 00010010;
  70 : 00010100;
  71 : 00001001;
  72 : 00000000;
  73 : 00000010;
  74 : 00101000;
  75 : 00000000;
  76 : 00001010;
  77 : 00010010;
  78 : 00100000;
  79 : 00000001;
  7A : 00010100;
  7B : 00000000;
  7C : 00000000;
  7D : 00000000;
  7E : 00010001;
  7F : 00000000;
  80 : 00010101;
  81 : 00000000;
  82 : 00000101;
  83 : 00000000;
  84 : 00100001;
  85 : 00000000;
  86 : 00000001;
  87 : 00000001;
  88 : 00001010;
  89 : 00000000;
  8A : 00000000;
  8B : 00000000;
  8C : 00101000;
  8D : 00000000;
  8E : 00000100;
  8F : 00000000;
  90 : 00100100;
  91 : 00000010;
  92 : 00001000;
  93 : 00000000;
  94 : 00000000;
  95 : 00101001;
  96 : 00000000;
  97 : 00000000;
  98 : 00010000;
  99 : 00000010;
  9A : 00000000;
  9B : 00001010;
  9C : 00000010;
  9D : 00100000;
  9E : 00010100;
  9F : 00000000;
  A0 : 00000000;
  A1 : 00000001;
  A2 : 00000000;
  A3 : 00000000;
  A4 : 00000000;
  A5 : 00100001;
  A6 : 00010000;
  A7 : 00100000;
  A8 : 00000001;
  A9 : 00000000;
  AA : 00000010;
  AB : 00100100;
  AC : 00000001;
  AD : 00000100;
  AE : 00000001;
  AF : 00000000;
  B0 : 00000001;
  B1 : 00000101;
  B2 : 00001001;
  B3 : 00000000;
  B4 : 00000001;
  B5 : 00000001;
  B6 : 00001000;
  B7 : 00001000;
  B8 : 00000100;
  B9 : 00000010;
  BA : 00000000;
  BB : 00010100;
  BC : 00010100;
  BD : 00010001;
  BE : 00000100;
  BF : 00000000;
  C0 : 00100101;
  C1 : 00100101;
  C2 : 00000101;
  C3 : 00001000;
  C4 : 00000000;
  C5 : 00000100;
  C6 : 00000100;
  C7 : 00000001;
  C8 : 00000010;
  C9 : 00000101;
  CA : 00000001;
  CB : 00000001;
  CC : 00000000;
  CD : 00100100;
  CE : 00010000;
  CF : 00000000;
  D0 : 00101000;
  D1 : 00001010;
  D2 : 00000100;
  D3 : 00100000;
  D4 : 00000001;
  D5 : 00000000;
  D6 : 00100000;
  D7 : 00000000;
  D8 : 00000001;
  D9 : 00000100;
  DA : 00100100;
  DB : 00000100;
  DC : 00000000;
  DD : 00101000;
  DE : 00010000;
  DF : 00000010;
  E0 : 00001000;
  E1 : 00000010;
  E2 : 00000000;
  E3 : 00010000;
  E4 : 00000001;
  E5 : 00000001;
  E6 : 00000000;
  E7 : 00000000;
  E8 : 00001000;
  E9 : 00001000;
  EA : 00100010;
  EB : 00000000;
  EC : 00000000;
  ED : 00000000;
  EE : 00000000;
  EF : 00000100;
  F0 : 00000101;
  F1 : 00000000;
  F2 : 00000010;
  F3 : 00000001;
  F4 : 00000010;
  F5 : 00000100;
  F6 : 00000001;
  F7 : 00000000;
  F8 : 00001000;
  F9 : 00001000;
  FA : 00000000;
  FB : 00101010;
  FC : 00000010;
  FD : 00000000;
  FE : 00000000;
  FF : 00010000;
 100 : 00000000;
 101 : 00000000;
 102 : 00000101;
 103 : 00000010;
 104 : 00000000;
 105 : 00100000;
 106 : 00100000;
 107 : 00000100;
 108 : 00010001;
 109 : 00000000;
 10A : 00000100;
 10B : 00000100;
 10C : 00001000;
 10D : 00010101;
 10E : 00001000;
 10F : 00000100;
 110 : 00101000;
 111 : 00000000;
 112 : 00000000;
 113 : 00100010;
 114 : 00001000;
 115 : 00010000;
 116 : 00100000;
 117 : 00000101;
 118 : 00001000;
 119 : 00100100;
 11A : 00000010;
 11B : 00000010;
 11C : 00000101;
 11D : 00000000;
 11E : 00000000;
 11F : 00000000;
 120 : 00010000;
 121 : 00000000;
 122 : 00000000;
 123 : 00001001;
 124 : 00000100;
 125 : 00000101;
 126 : 00010000;
 127 : 00000000;
 128 : 00100100;
 129 : 00010000;
 12A : 00000100;
 12B : 00000000;
 12C : 00100100;
 12D : 00010001;
 12E : 00100000;
 12F : 00000001;
 130 : 00000101;
 131 : 00000010;
 132 : 00000000;
 133 : 00000000;
 134 : 00000001;
 135 : 00000010;
 136 : 00000000;
 137 : 00000000;
 138 : 00000100;
 139 : 00000010;
 13A : 00000000;
 13B : 00000101;
 13C : 00000100;
 13D : 00000001;
 13E : 00000000;
 13F : 00000100;
 140 : 00001001;
 141 : 00101001;
 142 : 00000000;
 143 : 00100101;
 144 : 00000100;
 145 : 00000000;
 146 : 00000000;
 147 : 00100100;
 148 : 00000100;
 149 : 00010000;
 14A : 00000000;
 14B : 00000000;
 14C : 00001000;
 14D : 00000100;
 14E : 00000000;
 14F : 00010000;
 150 : 00100001;
 151 : 00010000;
 152 : 00000010;
 153 : 00000000;
 154 : 00000001;
 155 : 00000100;
 156 : 00000000;
 157 : 00000000;
 158 : 00000000;
 159 : 00010001;
 15A : 00000000;
 15B : 00000000;
 15C : 00010000;
 15D : 00000000;
 15E : 00000000;
 15F : 00000001;
 160 : 00000100;
 161 : 00000000;
 162 : 00000000;
 163 : 00000000;
 164 : 00101000;
 165 : 00010000;
 166 : 00001010;
 167 : 00000100;
 168 : 00000100;
 169 : 00101010;
 16A : 00000010;
 16B : 00000000;
 16C : 00000000;
 16D : 00000000;
 16E : 00000000;
 16F : 00000000;
 170 : 00000001;
 171 : 00000000;
 172 : 00000100;
 173 : 00101000;
 174 : 00000000;
 175 : 00000000;
 176 : 00000000;
 177 : 00010100;
 178 : 00000010;
 179 : 00100000;
 17A : 00000000;
 17B : 00010100;
 17C : 00000001;
 17D : 00000000;
 17E : 00000001;
 17F : 00101000;
 180 : 00001000;
 181 : 00000001;
 182 : 00000000;
 183 : 00000001;
 184 : 00000010;
 185 : 00101000;
 186 : 00000000;
 187 : 00010010;
 188 : 00000001;
 189 : 00000100;
 18A : 00000010;
 18B : 00000000;
 18C : 00000000;
 18D : 00001000;
 18E : 00000000;
 18F : 00001000;
 190 : 00100101;
 191 : 00000000;
 192 : 00000000;
 193 : 00010000;
 194 : 00001000;
 195 : 00100100;
 196 : 00010001;
 197 : 00001000;
 198 : 00010101;
 199 : 00000010;
 19A : 00000000;
 19B : 00000000;
 19C : 00101010;
 19D : 00000101;
 19E : 00000000;
 19F : 00001010;
 1A0 : 00001010;
 1A1 : 00010000;
 1A2 : 00010101;
 1A3 : 00000000;
 1A4 : 00000001;
 1A5 : 00000000;
 1A6 : 00000000;
 1A7 : 00000100;
 1A8 : 00101010;
 1A9 : 00000000;
 1AA : 00000100;
 1AB : 00001010;
 1AC : 00000000;
 1AD : 00000000;
 1AE : 00000100;
 1AF : 00000100;
 1B0 : 00000000;
 1B1 : 00000000;
 1B2 : 00000101;
 1B3 : 00000000;
 1B4 : 00000000;
 1B5 : 00010000;
 1B6 : 00001000;
 1B7 : 00100100;
 1B8 : 00000100;
 1B9 : 00101000;
 1BA : 00000010;
 1BB : 00000000;
 1BC : 00000000;
 1BD : 00000010;
 1BE : 00000010;
 1BF : 00010000;
 1C0 : 00000000;
 1C1 : 00000100;
 1C2 : 00101010;
 1C3 : 00000001;
 1C4 : 00010000;
 1C5 : 00000010;
 1C6 : 00000001;
 1C7 : 00000010;
 1C8 : 00001000;
 1C9 : 00101000;
 1CA : 00000000;
 1CB : 00101000;
 1CC : 00100010;
 1CD : 00000000;
 1CE : 00000000;
 1CF : 00000000;
 1D0 : 00000000;
 1D1 : 00001000;
 1D2 : 00000000;
 1D3 : 00000000;
 1D4 : 00000000;
 1D5 : 00001010;
 1D6 : 00100100;
 1D7 : 00000010;
 1D8 : 00000000;
 1D9 : 00101010;
 1DA : 00000000;
 1DB : 00000100;
 1DC : 00010001;
 1DD : 00101010;
 1DE : 00000010;
 1DF : 00000010;
 1E0 : 00000001;
 1E1 : 00010100;
 1E2 : 00010001;
 1E3 : 00100001;
 1E4 : 00000000;
 1E5 : 00000100;
 1E6 : 00010100;
 1E7 : 00000101;
 1E8 : 00101000;
 1E9 : 00010001;
 1EA : 00010100;
 1EB : 00000101;
 1EC : 00010001;
 1ED : 00101010;
 1EE : 00010001;
 1EF : 00010000;
 1F0 : 00010000;
 1F1 : 00001001;
 1F2 : 00000000;
 1F3 : 00000010;
 1F4 : 00101000;
 1F5 : 00001001;
 1F6 : 00101001;
 1F7 : 00000001;
 1F8 : 00101000;
 1F9 : 00100010;
 1FA : 00000010;
 1FB : 00000001;
 1FC : 00100001;
 1FD : 00000000;
 1FE : 00101000;
 1FF : 00010000;
 200 : 00000000;
 201 : 00000010;
 202 : 00001001;
 203 : 00010000;
 204 : 00000000;
 205 : 00000100;
 206 : 00000101;
 207 : 00010101;
 208 : 00001000;
 209 : 00010101;
 20A : 00000000;
 20B : 00000100;
 20C : 00100000;
 20D : 00000000;
 20E : 00000001;
 20F : 00101000;
 210 : 00001000;
 211 : 00000000;
 212 : 00000000;
 213 : 00000010;
 214 : 00101000;
 215 : 00000000;
 216 : 00000001;
 217 : 00000101;
 218 : 00000101;
 219 : 00000001;
 21A : 00000000;
 21B : 00010101;
 21C : 00000010;
 21D : 00000101;
 21E : 00001000;
 21F : 00000000;
 220 : 00101010;
 221 : 00000000;
 222 : 00100000;
 223 : 00000001;
 224 : 00000000;
 225 : 00000000;
 226 : 00000000;
 227 : 00001001;
 228 : 00100001;
 229 : 00000000;
 22A : 00000000;
 22B : 00000100;
 22C : 00000001;
 22D : 00000000;
 22E : 00000000;
 22F : 00000100;
 230 : 00000000;
 231 : 00010000;
 232 : 00100000;
 233 : 00000101;
 234 : 00001000;
 235 : 00000010;
 236 : 00001000;
 237 : 00101000;
 238 : 00010100;
 239 : 00000000;
 23A : 00000000;
 23B : 00101010;
 23C : 00000000;
 23D : 00101000;
 23E : 00101000;
 23F : 00010000;
 240 : 00000100;
 241 : 00000000;
 242 : 00000001;
 243 : 00000001;
 244 : 00000001;
 245 : 00000100;
 246 : 00100000;
 247 : 00000000;
 248 : 00000000;
 249 : 00000000;
 24A : 00000000;
 24B : 00000001;
 24C : 00000000;
 24D : 00000100;
 24E : 00001000;
 24F : 00000000;
 250 : 00000000;
 251 : 00000000;
 252 : 00010000;
 253 : 00000100;
 254 : 00000000;
 255 : 00000100;
 256 : 00000000;
 257 : 00000000;
 258 : 00000010;
 259 : 00000000;
 25A : 00000001;
 25B : 00010100;
 25C : 00010101;
 25D : 00000000;
 25E : 00000001;
 25F : 00000010;
 260 : 00000101;
 261 : 00001000;
 262 : 00100001;
 263 : 00000000;
 264 : 00000000;
 265 : 00100000;
 266 : 00000010;
 267 : 00000100;
 268 : 00100001;
 269 : 00000010;
 26A : 00000101;
 26B : 00100001;
 26C : 00000100;
 26D : 00010000;
 26E : 00000000;
 26F : 00000000;
 270 : 00000010;
 271 : 00000000;
 272 : 00000010;
 273 : 00000000;
 274 : 00010001;
 275 : 00000000;
 276 : 00100000;
 277 : 00001000;
 278 : 00000000;
 279 : 00000000;
 27A : 00010010;
 27B : 00000001;
 27C : 00100000;
 27D : 00010000;
 27E : 00100100;
 27F : 00000000;
 280 : 00001000;
 281 : 00100000;
 282 : 00000001;
 283 : 00100000;
 284 : 00000000;
 285 : 00000010;
 286 : 00010000;
 287 : 00100100;
 288 : 00000000;
 289 : 00000001;
 28A : 00010001;
 28B : 00001010;
 28C : 00000010;
 28D : 00000000;
 28E : 00101000;
 28F : 00000101;
 290 : 00010100;
 291 : 00000100;
 292 : 00100001;
 293 : 00000100;
 294 : 00001000;
 295 : 00000100;
 296 : 00001001;
 297 : 00000001;
 298 : 00000000;
 299 : 00000000;
 29A : 00000000;
 29B : 00001010;
 29C : 00101000;
 29D : 00000100;
 29E : 00101010;
 29F : 00101000;
 2A0 : 00001010;
 2A1 : 00000001;
 2A2 : 00010001;
 2A3 : 00000000;
 2A4 : 00010001;
 2A5 : 00000000;
 2A6 : 00010000;
 2A7 : 00000100;
 2A8 : 00000100;
 2A9 : 00101001;
 2AA : 00000100;
 2AB : 00001000;
 2AC : 00101001;
 2AD : 00000000;
 2AE : 00010010;
 2AF : 00000000;
 2B0 : 00000000;
 2B1 : 00000000;
 2B2 : 00010000;
 2B3 : 00101000;
 2B4 : 00000010;
 2B5 : 00000001;
 2B6 : 00000100;
 2B7 : 00000010;
 2B8 : 00101001;
 2B9 : 00000000;
 2BA : 00001000;
 2BB : 00000100;
 2BC : 00010000;
 2BD : 00101000;
 2BE : 00100010;
 2BF : 00000000;
 2C0 : 00000001;
 2C1 : 00000101;
 2C2 : 00101000;
 2C3 : 00000010;
 2C4 : 00000000;
 2C5 : 00000000;
 2C6 : 00000001;
 2C7 : 00010001;
 2C8 : 00000000;
 2C9 : 00001010;
 2CA : 00001010;
 2CB : 00000100;
 2CC : 00000010;
 2CD : 00000000;
 2CE : 00000010;
 2CF : 00000000;
 2D0 : 00000100;
 2D1 : 00010100;
 2D2 : 00101000;
 2D3 : 00000001;
 2D4 : 00000100;
 2D5 : 00001000;
 2D6 : 00101000;
 2D7 : 00000001;
 2D8 : 00000000;
 2D9 : 00000010;
 2DA : 00000001;
 2DB : 00000000;
 2DC : 00010010;
 2DD : 00000001;
 2DE : 00000010;
 2DF : 00001000;
 2E0 : 00000001;
 2E1 : 00101000;
 2E2 : 00000000;
 2E3 : 00101000;
 2E4 : 00010001;
 2E5 : 00000010;
 2E6 : 00000010;
 2E7 : 00000000;
 2E8 : 00000001;
 2E9 : 00000001;
 2EA : 00000000;
 2EB : 00010000;
 2EC : 00000000;
 2ED : 00010000;
 2EE : 00010000;
 2EF : 00010000;
 2F0 : 00100010;
 2F1 : 00000001;
 2F2 : 00000101;
 2F3 : 00001000;
 2F4 : 00000000;
 2F5 : 00000000;
 2F6 : 00100000;
 2F7 : 00000000;
 2F8 : 00000100;
 2F9 : 00001000;
 2FA : 00000000;
 2FB : 00010001;
 2FC : 00010000;
 2FD : 00000000;
 2FE : 00000101;
 2FF : 00000010;
 300 : 00000000;
 301 : 00000001;
 302 : 00000001;
 303 : 00000010;
 304 : 00000000;
 305 : 00000101;
 306 : 00100101;
 307 : 00101000;
 308 : 00100000;
 309 : 00101001;
 30A : 00000001;
 30B : 00001001;
 30C : 00100000;
 30D : 00010001;
 30E : 00101000;
 30F : 00000001;
 310 : 00100001;
 311 : 00100100;
 312 : 00001000;
 313 : 00010101;
 314 : 00000000;
 315 : 00000000;
 316 : 00000000;
 317 : 00000000;
 318 : 00100100;
 319 : 00001001;
 31A : 00010001;
 31B : 00010000;
 31C : 00000001;
 31D : 00100000;
 31E : 00100001;
 31F : 00010001;
 320 : 00100000;
 321 : 00010010;
 322 : 00010101;
 323 : 00000000;
 324 : 00000001;
 325 : 00000000;
 326 : 00000000;
 327 : 00010000;
 328 : 00000001;
 329 : 00010001;
 32A : 00001001;
 32B : 00000000;
 32C : 00000101;
 32D : 00000010;
 32E : 00000000;
 32F : 00000000;
 330 : 00000100;
 331 : 00001010;
 332 : 00000000;
 333 : 00000001;
 334 : 00001000;
 335 : 00000100;
 336 : 00000000;
 337 : 00000000;
 338 : 00000000;
 339 : 00010000;
 33A : 00000000;
 33B : 00000001;
 33C : 00000000;
 33D : 00000100;
 33E : 00100000;
 33F : 00100000;
 340 : 00000001;
 341 : 00010000;
 342 : 00101001;
 343 : 00001000;
 344 : 00000000;
 345 : 00000000;
 346 : 00000001;
 347 : 00000000;
 348 : 00000010;
 349 : 00100101;
 34A : 00000000;
 34B : 00000010;
 34C : 00000001;
 34D : 00001000;
 34E : 00001000;
 34F : 00100001;
 350 : 00000000;
 351 : 00000100;
 352 : 00000000;
 353 : 00000000;
 354 : 00100001;
 355 : 00000000;
 356 : 00001000;
 357 : 00000000;
 358 : 00000000;
 359 : 00010000;
 35A : 00000000;
 35B : 00000000;
 35C : 00000010;
 35D : 00010100;
 35E : 00000001;
 35F : 00010000;
 360 : 00000101;
 361 : 00000010;
 362 : 00100101;
 363 : 00000000;
 364 : 00000000;
 365 : 00001000;
 366 : 00100010;
 367 : 00000001;
 368 : 00000000;
 369 : 00010001;
 36A : 00001000;
 36B : 00001000;
 36C : 00001000;
 36D : 00000000;
 36E : 00100101;
 36F : 00101000;
 370 : 00000000;
 371 : 00100100;
 372 : 00000000;
 373 : 00010000;
 374 : 00000001;
 375 : 00100100;
 376 : 00000001;
 377 : 00000001;
 378 : 00000000;
 379 : 00000000;
 37A : 00000100;
 37B : 00000000;
 37C : 00100100;
 37D : 00000000;
 37E : 00010000;
 37F : 00000100;
 380 : 00000010;
 381 : 00000000;
 382 : 00001000;
 383 : 00101000;
 384 : 00000001;
 385 : 00000010;
 386 : 00001000;
 387 : 00001000;
 388 : 00000100;
 389 : 00000000;
 38A : 00000000;
 38B : 00000010;
 38C : 00000101;
 38D : 00100000;
 38E : 00000010;
 38F : 00001000;
 390 : 00101000;
 391 : 00000000;
 392 : 00010010;
 393 : 00000000;
 394 : 00001000;
 395 : 00000000;
 396 : 00010000;
 397 : 00000001;
 398 : 00000001;
 399 : 00000000;
 39A : 00010000;
 39B : 00000001;
 39C : 00000000;
 39D : 00000000;
 39E : 00000000;
 39F : 00000000;
 3A0 : 00000000;
 3A1 : 00100001;
 3A2 : 00000000;
 3A3 : 00100101;
 3A4 : 00010001;
 3A5 : 00000010;
 3A6 : 00000001;
 3A7 : 00000001;
 3A8 : 00000000;
 3A9 : 00000010;
 3AA : 00000000;
 3AB : 00000010;
 3AC : 00100000;
 3AD : 00010000;
 3AE : 00100000;
 3AF : 00001010;
 3B0 : 00000000;
 3B1 : 00000010;
 3B2 : 00000010;
 3B3 : 00000101;
 3B4 : 00000000;
 3B5 : 00000000;
 3B6 : 00000010;
 3B7 : 00000000;
 3B8 : 00100001;
 3B9 : 00000000;
 3BA : 00000000;
 3BB : 00000000;
 3BC : 00000000;
 3BD : 00000000;
 3BE : 00000001;
 3BF : 00000100;
 3C0 : 00100001;
 3C1 : 00010000;
 3C2 : 00000000;
 3C3 : 00000000;
 3C4 : 00000010;
 3C5 : 00101000;
 3C6 : 00010001;
 3C7 : 00001000;
 3C8 : 00010000;
 3C9 : 00000010;
 3CA : 00101000;
 3CB : 00000100;
 3CC : 00000101;
 3CD : 00000100;
 3CE : 00010000;
 3CF : 00000000;
 3D0 : 00000000;
 3D1 : 00100010;
 3D2 : 00000010;
 3D3 : 00000100;
 3D4 : 00000000;
 3D5 : 00010100;
 3D6 : 00000000;
 3D7 : 00101000;
 3D8 : 00000100;
 3D9 : 00000000;
 3DA : 00010000;
 3DB : 00000000;
 3DC : 00101001;
 3DD : 00010100;
 3DE : 00001001;
 3DF : 00001000;
 3E0 : 00000000;
 3E1 : 00000000;
 3E2 : 00000001;
 3E3 : 00010010;
 3E4 : 00000000;
 3E5 : 00000000;
 3E6 : 00000001;
 3E7 : 00100000;
 3E8 : 00000000;
 3E9 : 00100010;
 3EA : 00010001;
 3EB : 00001000;
 3EC : 00001000;
 3ED : 00000100;
 3EE : 00100000;
 3EF : 00000000;
 3F0 : 00000100;
 3F1 : 00000101;
 3F2 : 00000100;
 3F3 : 00010101;
 3F4 : 00000000;
 3F5 : 00001000;
 3F6 : 00000000;
 3F7 : 00010100;
 3F8 : 00000000;
 3F9 : 00000100;
 3FA : 00010100;
 3FB : 00000000;
 3FC : 00000001;
 3FD : 00000001;
 3FE : 00000000;
 3FF : 00101000;
END
