-- RAM Initialization file
WIDTH = 8;
DEPTH = 1024;
ADDRESS_RADIX = HEX;
DATA_RADIX = BIN;
CONTENT
BEGIN
   0 : 00101000;
   1 : 01000000;
   2 : 01010000;
   3 : 00001010;
   4 : 01010010;
   5 : 01010100;
   6 : 00100100;
   7 : 01000000;
   8 : 01000001;
   9 : 01001000;
   A : 01001010;
   B : 01010000;
   C : 00101000;
   D : 01000000;
   E : 10000000;
   F : 01000001;
  10 : 01010101;
  11 : 00100000;
  12 : 01000000;
  13 : 01000000;
  14 : 10000001;
  15 : 00001000;
  16 : 01000010;
  17 : 01000100;
  18 : 00001001;
  19 : 10000000;
  1A : 10000001;
  1B : 01000000;
  1C : 01010000;
  1D : 00010000;
  1E : 01000000;
  1F : 00100010;
  20 : 01000001;
  21 : 01010101;
  22 : 00010100;
  23 : 00100000;
  24 : 01000000;
  25 : 00100010;
  26 : 01010000;
  27 : 10000100;
  28 : 00010000;
  29 : 00100000;
  2A : 01001000;
  2B : 00100101;
  2C : 10000010;
  2D : 10000010;
  2E : 01000001;
  2F : 10000000;
  30 : 00101000;
  31 : 01000000;
  32 : 10000100;
  33 : 01000000;
  34 : 10000000;
  35 : 01001000;
  36 : 01000000;
  37 : 01000000;
  38 : 10000001;
  39 : 00010100;
  3A : 00101000;
  3B : 10000100;
  3C : 00101000;
  3D : 01000010;
  3E : 10000000;
  3F : 10000100;
  40 : 01000001;
  41 : 00001010;
  42 : 00000100;
  43 : 01000000;
  44 : 01000001;
  45 : 10000001;
  46 : 01010000;
  47 : 01000010;
  48 : 01000100;
  49 : 00100010;
  4A : 10000001;
  4B : 01000000;
  4C : 00000100;
  4D : 01001000;
  4E : 01000100;
  4F : 00000101;
  50 : 10000001;
  51 : 00100001;
  52 : 00100000;
  53 : 00010000;
  54 : 00100000;
  55 : 00100000;
  56 : 01000001;
  57 : 00001000;
  58 : 00100000;
  59 : 00100000;
  5A : 10000000;
  5B : 01000000;
  5C : 01010000;
  5D : 01000000;
  5E : 01010000;
  5F : 00010000;
  60 : 10000010;
  61 : 01010101;
  62 : 00000101;
  63 : 01000000;
  64 : 00100000;
  65 : 01000000;
  66 : 00100000;
  67 : 01000010;
  68 : 01000000;
  69 : 01000000;
  6A : 01000001;
  6B : 00000100;
  6C : 01000100;
  6D : 00101001;
  6E : 00001010;
  6F : 01000000;
  70 : 01000001;
  71 : 01000000;
  72 : 01010001;
  73 : 01001000;
  74 : 10000000;
  75 : 00000101;
  76 : 00100000;
  77 : 01000000;
  78 : 10000000;
  79 : 01010000;
  7A : 01000001;
  7B : 00100001;
  7C : 00000101;
  7D : 01001010;
  7E : 01000100;
  7F : 00010100;
  80 : 01000000;
  81 : 00010001;
  82 : 01010000;
  83 : 00100101;
  84 : 10000000;
  85 : 00000001;
  86 : 01010100;
  87 : 01000000;
  88 : 01000000;
  89 : 01000001;
  8A : 01001001;
  8B : 00001001;
  8C : 10000000;
  8D : 00000001;
  8E : 00100001;
  8F : 00010010;
  90 : 10000001;
  91 : 00001000;
  92 : 01000010;
  93 : 01000000;
  94 : 01000001;
  95 : 10000000;
  96 : 00000101;
  97 : 01010010;
  98 : 01000101;
  99 : 01001000;
  9A : 00010101;
  9B : 01000000;
  9C : 01001000;
  9D : 10000000;
  9E : 01000000;
  9F : 00001000;
  A0 : 00000101;
  A1 : 01000000;
  A2 : 01010000;
  A3 : 01000101;
  A4 : 00100010;
  A5 : 10000000;
  A6 : 01000100;
  A7 : 10000000;
  A8 : 00001000;
  A9 : 00010100;
  AA : 01010000;
  AB : 10000000;
  AC : 01010000;
  AD : 00100001;
  AE : 00010000;
  AF : 01010101;
  B0 : 01010000;
  B1 : 00100000;
  B2 : 00100000;
  B3 : 00100000;
  B4 : 01010100;
  B5 : 01010100;
  B6 : 01000001;
  B7 : 01000001;
  B8 : 00100000;
  B9 : 01001000;
  BA : 01010000;
  BB : 01000000;
  BC : 01000001;
  BD : 01000000;
  BE : 00100000;
  BF : 01000100;
  C0 : 10000000;
  C1 : 10000000;
  C2 : 01010000;
  C3 : 00100010;
  C4 : 01000101;
  C5 : 00010001;
  C6 : 00010000;
  C7 : 00010100;
  C8 : 00010000;
  C9 : 01000000;
  CA : 00001000;
  CB : 01010100;
  CC : 01001001;
  CD : 10000001;
  CE : 01000001;
  CF : 01000010;
  D0 : 10000001;
  D1 : 01000000;
  D2 : 00100000;
  D3 : 10000010;
  D4 : 00000100;
  D5 : 00100000;
  D6 : 10000010;
  D7 : 00100100;
  D8 : 00100000;
  D9 : 00010000;
  DA : 10000000;
  DB : 00010001;
  DC : 00100001;
  DD : 10000010;
  DE : 01000010;
  DF : 01000000;
  E0 : 01000010;
  E1 : 01001000;
  E2 : 00000010;
  E3 : 01000101;
  E4 : 00000100;
  E5 : 01010100;
  E6 : 00100010;
  E7 : 01010101;
  E8 : 00100000;
  E9 : 01000010;
  EA : 10000000;
  EB : 00000100;
  EC : 00000101;
  ED : 00000010;
  EE : 01000100;
  EF : 01000000;
  F0 : 00010000;
  F1 : 01010000;
  F2 : 01000000;
  F3 : 00001000;
  F4 : 00001000;
  F5 : 00010001;
  F6 : 01010000;
  F7 : 00001001;
  F8 : 00100000;
  F9 : 00100000;
  FA : 00001010;
  FB : 10000000;
  FC : 01001000;
  FD : 01001010;
  FE : 01000001;
  FF : 01000100;
 100 : 00100000;
 101 : 01000010;
 102 : 00010000;
 103 : 00010000;
 104 : 00000001;
 105 : 10000001;
 106 : 10000010;
 107 : 00010000;
 108 : 01000000;
 109 : 01000010;
 10A : 00100001;
 10B : 01010000;
 10C : 01000000;
 10D : 01000000;
 10E : 00100010;
 10F : 01010000;
 110 : 10000010;
 111 : 01001001;
 112 : 00101001;
 113 : 10000000;
 114 : 00100001;
 115 : 01000101;
 116 : 10000000;
 117 : 00100000;
 118 : 00100001;
 119 : 10000001;
 11A : 00001000;
 11B : 00100000;
 11C : 01000000;
 11D : 00010100;
 11E : 01000000;
 11F : 01010000;
 120 : 01000010;
 121 : 01000001;
 122 : 01010000;
 123 : 00100000;
 124 : 01000000;
 125 : 00010000;
 126 : 01000100;
 127 : 01010100;
 128 : 10000000;
 129 : 01000010;
 12A : 00100000;
 12B : 01000001;
 12C : 10000000;
 12D : 01000100;
 12E : 10000010;
 12F : 00010100;
 130 : 00010000;
 131 : 00100000;
 132 : 00101000;
 133 : 00101010;
 134 : 00100000;
 135 : 01001000;
 136 : 00001001;
 137 : 00101000;
 138 : 00100001;
 139 : 00100000;
 13A : 00001010;
 13B : 01000000;
 13C : 00100000;
 13D : 00010000;
 13E : 00000000;
 13F : 00100000;
 140 : 01000000;
 141 : 10000000;
 142 : 00000100;
 143 : 10000000;
 144 : 00010001;
 145 : 01010100;
 146 : 01010000;
 147 : 10000000;
 148 : 00010001;
 149 : 01000010;
 14A : 00101000;
 14B : 00010001;
 14C : 01000010;
 14D : 01000001;
 14E : 00010101;
 14F : 01000100;
 150 : 10000100;
 151 : 01000001;
 152 : 01001000;
 153 : 00101001;
 154 : 00000100;
 155 : 00100001;
 156 : 01010000;
 157 : 00100010;
 158 : 00001000;
 159 : 01000100;
 15A : 00100101;
 15B : 01001010;
 15C : 01000100;
 15D : 01010001;
 15E : 01010010;
 15F : 00010100;
 160 : 00010000;
 161 : 01010010;
 162 : 01000000;
 163 : 00000001;
 164 : 10000010;
 165 : 01000100;
 166 : 01000000;
 167 : 01000001;
 168 : 01010000;
 169 : 10000000;
 16A : 00101000;
 16B : 00001000;
 16C : 01001010;
 16D : 00100001;
 16E : 01010100;
 16F : 00100101;
 170 : 01010100;
 171 : 00010001;
 172 : 00010001;
 173 : 10000000;
 174 : 00000100;
 175 : 01000101;
 176 : 01001010;
 177 : 01000000;
 178 : 00101000;
 179 : 10000010;
 17A : 00101000;
 17B : 01000000;
 17C : 00010000;
 17D : 00100000;
 17E : 00100000;
 17F : 10000010;
 180 : 00100000;
 181 : 00100000;
 182 : 00101001;
 183 : 01001000;
 184 : 00010000;
 185 : 10000000;
 186 : 00001000;
 187 : 01000000;
 188 : 00000100;
 189 : 01010000;
 18A : 01001000;
 18B : 00010101;
 18C : 01000100;
 18D : 01000000;
 18E : 01010101;
 18F : 01000000;
 190 : 10000000;
 191 : 00101010;
 192 : 00100100;
 193 : 01000001;
 194 : 00100001;
 195 : 10000001;
 196 : 01000000;
 197 : 00100001;
 198 : 01000000;
 199 : 01001000;
 19A : 00101000;
 19B : 00010010;
 19C : 10000000;
 19D : 01000000;
 19E : 00100101;
 19F : 00100000;
 1A0 : 00100000;
 1A1 : 01000100;
 1A2 : 01000000;
 1A3 : 01001010;
 1A4 : 00001000;
 1A5 : 01010101;
 1A6 : 01000100;
 1A7 : 00010001;
 1A8 : 10000000;
 1A9 : 00010100;
 1AA : 01000001;
 1AB : 01000000;
 1AC : 00010000;
 1AD : 00000000;
 1AE : 01010001;
 1AF : 01010001;
 1B0 : 00101010;
 1B1 : 00000101;
 1B2 : 01000000;
 1B3 : 00010001;
 1B4 : 01001001;
 1B5 : 01000101;
 1B6 : 00100001;
 1B7 : 10000000;
 1B8 : 01010000;
 1B9 : 10000001;
 1BA : 00001000;
 1BB : 00010010;
 1BC : 01001010;
 1BD : 01001000;
 1BE : 01010000;
 1BF : 01000010;
 1C0 : 00101010;
 1C1 : 01000001;
 1C2 : 10000000;
 1C3 : 01000100;
 1C4 : 01000100;
 1C5 : 00100000;
 1C6 : 01001000;
 1C7 : 00101000;
 1C8 : 01000001;
 1C9 : 10000001;
 1CA : 01010101;
 1CB : 10000010;
 1CC : 10000000;
 1CD : 01010010;
 1CE : 00000000;
 1CF : 00000000;
 1D0 : 00001000;
 1D1 : 00100010;
 1D2 : 00000010;
 1D3 : 00101010;
 1D4 : 00100010;
 1D5 : 01000000;
 1D6 : 10000001;
 1D7 : 00100000;
 1D8 : 00100010;
 1D9 : 10000000;
 1DA : 00100010;
 1DB : 00010001;
 1DC : 01000100;
 1DD : 10000000;
 1DE : 00101000;
 1DF : 01001000;
 1E0 : 01000000;
 1E1 : 01000001;
 1E2 : 01000000;
 1E3 : 10000000;
 1E4 : 00001000;
 1E5 : 00100000;
 1E6 : 01000001;
 1E7 : 01000000;
 1E8 : 10000000;
 1E9 : 01000000;
 1EA : 01000000;
 1EB : 01010000;
 1EC : 01000000;
 1ED : 10000000;
 1EE : 01000000;
 1EF : 01000010;
 1F0 : 01000001;
 1F1 : 00100000;
 1F2 : 00001000;
 1F3 : 00001000;
 1F4 : 10000001;
 1F5 : 00100000;
 1F6 : 10000000;
 1F7 : 01001000;
 1F8 : 10000000;
 1F9 : 10000000;
 1FA : 00010000;
 1FB : 00101000;
 1FC : 10000100;
 1FD : 01000001;
 1FE : 10000010;
 1FF : 01000000;
 200 : 00000001;
 201 : 01000000;
 202 : 00100000;
 203 : 01000101;
 204 : 01001001;
 205 : 01000001;
 206 : 01000000;
 207 : 01000000;
 208 : 00100000;
 209 : 01000000;
 20A : 00000001;
 20B : 01000001;
 20C : 10000000;
 20D : 00001001;
 20E : 00000100;
 20F : 10000001;
 210 : 00100000;
 211 : 00000000;
 212 : 01010010;
 213 : 00010000;
 214 : 10000000;
 215 : 00001001;
 216 : 00100100;
 217 : 01000000;
 218 : 01000000;
 219 : 01000100;
 21A : 01000001;
 21B : 01000000;
 21C : 00010000;
 21D : 01010000;
 21E : 00100000;
 21F : 01000001;
 220 : 10000000;
 221 : 00001000;
 222 : 10000010;
 223 : 00000100;
 224 : 01010100;
 225 : 01010100;
 226 : 00000101;
 227 : 01000000;
 228 : 10000000;
 229 : 00100000;
 22A : 01010001;
 22B : 01000000;
 22C : 01010000;
 22D : 01010000;
 22E : 00000101;
 22F : 00100000;
 230 : 01000001;
 231 : 01000001;
 232 : 10000010;
 233 : 01010000;
 234 : 01000001;
 235 : 00100000;
 236 : 00100001;
 237 : 10000001;
 238 : 01000001;
 239 : 01010010;
 23A : 00001001;
 23B : 10000000;
 23C : 00000010;
 23D : 10000010;
 23E : 10000010;
 23F : 01000100;
 240 : 00010000;
 241 : 00010001;
 242 : 01001000;
 243 : 01010100;
 244 : 00000100;
 245 : 01010000;
 246 : 10000000;
 247 : 00100010;
 248 : 01000000;
 249 : 00100010;
 24A : 00010101;
 24B : 01010000;
 24C : 01001001;
 24D : 00100000;
 24E : 01000010;
 24F : 00101010;
 250 : 00001001;
 251 : 00000010;
 252 : 01000001;
 253 : 00100000;
 254 : 00100010;
 255 : 00100001;
 256 : 00010001;
 257 : 00101000;
 258 : 01001000;
 259 : 00010100;
 25A : 01000100;
 25B : 01000000;
 25C : 01000000;
 25D : 00010001;
 25E : 00010100;
 25F : 01000000;
 260 : 00100000;
 261 : 01000000;
 262 : 10000000;
 263 : 01001000;
 264 : 01000100;
 265 : 10000000;
 266 : 01010000;
 267 : 01000001;
 268 : 10000000;
 269 : 00001000;
 26A : 00100000;
 26B : 10000100;
 26C : 01010001;
 26D : 01000000;
 26E : 01000100;
 26F : 00101010;
 270 : 00101000;
 271 : 00010101;
 272 : 00101000;
 273 : 00000010;
 274 : 01000000;
 275 : 00100001;
 276 : 10000010;
 277 : 01000000;
 278 : 01010101;
 279 : 00101001;
 27A : 01000000;
 27B : 01010100;
 27C : 10000100;
 27D : 01000100;
 27E : 10000001;
 27F : 01001010;
 280 : 01000001;
 281 : 10000001;
 282 : 01010100;
 283 : 10000000;
 284 : 01000001;
 285 : 00101000;
 286 : 01000000;
 287 : 10000000;
 288 : 00000001;
 289 : 00010000;
 28A : 01000000;
 28B : 01000000;
 28C : 00001000;
 28D : 01000010;
 28E : 10000001;
 28F : 00010000;
 290 : 01000000;
 291 : 00100000;
 292 : 10000100;
 293 : 01000001;
 294 : 00100001;
 295 : 00010001;
 296 : 01000000;
 297 : 01010100;
 298 : 01010100;
 299 : 01010100;
 29A : 00010100;
 29B : 01000000;
 29C : 10000000;
 29D : 00010000;
 29E : 10000000;
 29F : 10000010;
 2A0 : 00100000;
 2A1 : 00001000;
 2A2 : 01000000;
 2A3 : 01010100;
 2A4 : 01000000;
 2A5 : 00101001;
 2A6 : 01000010;
 2A7 : 00010000;
 2A8 : 00010001;
 2A9 : 10000000;
 2AA : 01000000;
 2AB : 00100010;
 2AC : 10000000;
 2AD : 00000101;
 2AE : 01000000;
 2AF : 01001000;
 2B0 : 00100010;
 2B1 : 00101000;
 2B2 : 01000101;
 2B3 : 10000010;
 2B4 : 01010000;
 2B5 : 00001000;
 2B6 : 00100000;
 2B7 : 00101000;
 2B8 : 10000000;
 2B9 : 00101010;
 2BA : 00100000;
 2BB : 01000000;
 2BC : 01000000;
 2BD : 10000010;
 2BE : 10000000;
 2BF : 01010010;
 2C0 : 01001000;
 2C1 : 01010000;
 2C2 : 10000010;
 2C3 : 00001000;
 2C4 : 00100001;
 2C5 : 00000000;
 2C6 : 01010100;
 2C7 : 01000100;
 2C8 : 00100100;
 2C9 : 00100000;
 2CA : 01000000;
 2CB : 00100001;
 2CC : 00001000;
 2CD : 00001000;
 2CE : 00001000;
 2CF : 00101001;
 2D0 : 00010000;
 2D1 : 01000000;
 2D2 : 10000010;
 2D3 : 00100100;
 2D4 : 00010000;
 2D5 : 01000001;
 2D6 : 10000000;
 2D7 : 00100100;
 2D8 : 00000100;
 2D9 : 00010000;
 2DA : 00001000;
 2DB : 01001010;
 2DC : 01000000;
 2DD : 01000100;
 2DE : 01001000;
 2DF : 01000001;
 2E0 : 01000000;
 2E1 : 10000000;
 2E2 : 01000010;
 2E3 : 10000000;
 2E4 : 01000000;
 2E5 : 00010000;
 2E6 : 00001000;
 2E7 : 01001000;
 2E8 : 00100000;
 2E9 : 01000100;
 2EA : 01000001;
 2EB : 01000101;
 2EC : 01001000;
 2ED : 01000010;
 2EE : 01000001;
 2EF : 01000010;
 2F0 : 10000000;
 2F1 : 00101000;
 2F2 : 00010000;
 2F3 : 00100000;
 2F4 : 01000101;
 2F5 : 01010100;
 2F6 : 10000001;
 2F7 : 00010101;
 2F8 : 01010000;
 2F9 : 01000010;
 2FA : 00101000;
 2FB : 01000100;
 2FC : 01000010;
 2FD : 01000001;
 2FE : 01010000;
 2FF : 00100000;
 300 : 00001001;
 301 : 01010100;
 302 : 00101000;
 303 : 01010000;
 304 : 00010010;
 305 : 00010000;
 306 : 10000000;
 307 : 10000000;
 308 : 10000100;
 309 : 10000000;
 30A : 00000100;
 30B : 01000000;
 30C : 10000100;
 30D : 01000100;
 30E : 10000000;
 30F : 00001000;
 310 : 10000100;
 311 : 10000001;
 312 : 01000000;
 313 : 01000000;
 314 : 00100010;
 315 : 01001000;
 316 : 00000001;
 317 : 00100101;
 318 : 10000001;
 319 : 01000000;
 31A : 01000000;
 31B : 01000010;
 31C : 00100000;
 31D : 10000000;
 31E : 10000100;
 31F : 01000100;
 320 : 10000100;
 321 : 01000000;
 322 : 01000000;
 323 : 00010101;
 324 : 00010100;
 325 : 01010100;
 326 : 01001001;
 327 : 01000101;
 328 : 01010100;
 329 : 01000100;
 32A : 01000000;
 32B : 00010101;
 32C : 01000000;
 32D : 00010000;
 32E : 00000101;
 32F : 01000101;
 330 : 01000001;
 331 : 00100000;
 332 : 00101001;
 333 : 01000000;
 334 : 01000000;
 335 : 00010000;
 336 : 00010001;
 337 : 00000000;
 338 : 00101010;
 339 : 01000001;
 33A : 00010000;
 33B : 01000100;
 33C : 00000001;
 33D : 00010000;
 33E : 10000000;
 33F : 10000010;
 340 : 00000100;
 341 : 01000001;
 342 : 10000000;
 343 : 00100000;
 344 : 01010100;
 345 : 01010010;
 346 : 01000000;
 347 : 00000000;
 348 : 00101000;
 349 : 10000000;
 34A : 01000100;
 34B : 00101000;
 34C : 01000000;
 34D : 00100000;
 34E : 01000001;
 34F : 10000100;
 350 : 01010101;
 351 : 00100000;
 352 : 01000100;
 353 : 00100100;
 354 : 10000100;
 355 : 00001000;
 356 : 00100001;
 357 : 01010001;
 358 : 00001000;
 359 : 01000101;
 35A : 01010000;
 35B : 01001010;
 35C : 00010000;
 35D : 01000000;
 35E : 00100100;
 35F : 01000000;
 360 : 01000000;
 361 : 00010000;
 362 : 10000000;
 363 : 01000000;
 364 : 00010000;
 365 : 01000001;
 366 : 10000000;
 367 : 01010000;
 368 : 01000101;
 369 : 01000000;
 36A : 00100010;
 36B : 01000001;
 36C : 00100001;
 36D : 00100000;
 36E : 10000000;
 36F : 10000001;
 370 : 01010000;
 371 : 10000001;
 372 : 00010010;
 373 : 01000100;
 374 : 01000000;
 375 : 10000000;
 376 : 01000100;
 377 : 00101000;
 378 : 01001010;
 379 : 01010010;
 37A : 01000000;
 37B : 00001000;
 37C : 10000001;
 37D : 00000101;
 37E : 01000101;
 37F : 00010000;
 380 : 00101000;
 381 : 01010010;
 382 : 00100000;
 383 : 10000001;
 384 : 01001000;
 385 : 00101000;
 386 : 00100001;
 387 : 00100001;
 388 : 01010001;
 389 : 00000101;
 38A : 01000101;
 38B : 01000000;
 38C : 01010000;
 38D : 10000010;
 38E : 00101000;
 38F : 00100010;
 390 : 10000000;
 391 : 01010001;
 392 : 01000000;
 393 : 00001001;
 394 : 01000000;
 395 : 00010010;
 396 : 01000101;
 397 : 00100100;
 398 : 00100000;
 399 : 01001001;
 39A : 01000100;
 39B : 01010000;
 39C : 00010100;
 39D : 01000100;
 39E : 00000101;
 39F : 01010000;
 3A0 : 01000100;
 3A1 : 10000000;
 3A2 : 00001001;
 3A3 : 10000000;
 3A4 : 01000100;
 3A5 : 01000000;
 3A6 : 00100000;
 3A7 : 00001000;
 3A8 : 01010101;
 3A9 : 00010000;
 3AA : 00100101;
 3AB : 01000000;
 3AC : 10000100;
 3AD : 01000100;
 3AE : 10000100;
 3AF : 00100000;
 3B0 : 00101000;
 3B1 : 01001000;
 3B2 : 00001000;
 3B3 : 01010000;
 3B4 : 00101010;
 3B5 : 01010001;
 3B6 : 00101000;
 3B7 : 00100000;
 3B8 : 10000100;
 3B9 : 01001000;
 3BA : 00101001;
 3BB : 00001001;
 3BC : 01001010;
 3BD : 01000000;
 3BE : 00001000;
 3BF : 00010000;
 3C0 : 10000100;
 3C1 : 01000010;
 3C2 : 00000010;
 3C3 : 00000101;
 3C4 : 00010000;
 3C5 : 10000010;
 3C6 : 01000000;
 3C7 : 01000000;
 3C8 : 01000001;
 3C9 : 00001000;
 3CA : 10000010;
 3CB : 00100001;
 3CC : 00100000;
 3CD : 01000000;
 3CE : 01000000;
 3CF : 00100101;
 3D0 : 01000010;
 3D1 : 10000000;
 3D2 : 01000000;
 3D3 : 00100000;
 3D4 : 00010100;
 3D5 : 01000000;
 3D6 : 00000010;
 3D7 : 10000000;
 3D8 : 01000001;
 3D9 : 00010100;
 3DA : 01000100;
 3DB : 00000101;
 3DC : 10000000;
 3DD : 01000000;
 3DE : 01000000;
 3DF : 01000001;
 3E0 : 01000100;
 3E1 : 00100101;
 3E2 : 00001000;
 3E3 : 01000000;
 3E4 : 00000100;
 3E5 : 01001010;
 3E6 : 00000100;
 3E7 : 10000000;
 3E8 : 01001010;
 3E9 : 10000000;
 3EA : 01000100;
 3EB : 00100000;
 3EC : 00100010;
 3ED : 01010000;
 3EE : 10000100;
 3EF : 00100100;
 3F0 : 01010000;
 3F1 : 00010000;
 3F2 : 01000000;
 3F3 : 01000000;
 3F4 : 01001001;
 3F5 : 00100010;
 3F6 : 00001001;
 3F7 : 01000001;
 3F8 : 01000000;
 3F9 : 00010001;
 3FA : 01000001;
 3FB : 01000001;
 3FC : 01010100;
 3FD : 00100000;
 3FE : 00101000;
 3FF : 10000001;
END
